[TITLE]


[JUNCTIONS]
;ID              	Elev        	Demand      	Pattern         
 1               	1492        	0           	                	;										
 10              	1489        	0.011574    	5-10_AM_Y_16-20_PM	;										
 100             	1557.69     	0           	                	;										
 103             	1537.066528 	0           	                	;										
 1037            	1523        	0.011574    	5-10_AM_Y_16-20_PM	;										
 1038            	1512        	0.011574    	5-10_AM_Y_16-20_PM	;										
 1039            	1512        	0.011574    	5-10_AM_Y_16-20_PM	;										
 104             	1539.37085  	0           	                	;										
 1040            	1518        	0.011574    	5-10_AM_Y_16-20_PM	;										
 1042            	1525        	0.11574     	5-10_AM_Y_16-20_PM	;										
 105             	1529.044922 	0           	                	;										
 1058            	1520        	0           	                	;										
 106             	1547.834839 	0           	                	;										
 107             	1536.473267 	0           	                	;										
 108             	1530.786987 	0           	                	;										
 109             	1534.645142 	0.011574    	Continuo        	;										
 1095            	1517        	0           	                	;										
 11              	1488        	0.011574    	5-10_AM_Y_16-20_PM	;										
 110             	1532.656128 	0.011574    	Continuo        	;										
 1105            	1519        	0.011574    	5-10_AM_Y_16-20_PM	;										
 111             	1510.962524 	0           	                	;										
 1134            	1509        	0.011574    	5-10_AM_Y_16-20_PM	;										
 1139            	1525        	0           	                	;										
 1141            	1525        	0           	                	;										
 1142            	1525        	0           	                	;										
 1143            	1525        	0           	                	;										
 1145            	1525        	0           	                	;										
 1147            	1524        	0.011574    	5-10_AM_Y_16-20_PM	;										
 1150            	1499.23     	0           	                	;										
 1151            	1499.67     	0           	                	;										
 1153            	1534.534912 	0           	                	;										
 1154            	1509.105957 	0           	                	;										
 1155            	1509.105957 	0           	                	;										
 1156            	1541.580566 	0           	                	;										
 1157            	1536.421387 	0.011574    	Continuo        	;										
 1158            	1533.5448   	0.011574    	Continuo        	;										
 1159            	1547.958496 	0           	                	;										
 1160            	1550.198242 	0.011574    	Continuo        	;										
 1161            	1547.043091 	0.011574    	Continuo        	;										
 1162            	1544.623779 	0.011574    	Continuo        	;										
 1163            	1542.244751 	0.011574    	Continuo        	;										
 1164            	1529.878052 	0.011574    	Continuo        	;										
 1165            	1528.011475 	0.011574    	Continuo        	;										
 1166            	1539.999878 	0.011574    	Continuo        	;										
 1167            	1537.585327 	0.011574    	Continuo        	;										
 1168            	1539.109131 	0.011574    	Continuo        	;										
 1169            	1535.382202 	0.011574    	Continuo        	;										
 1170            	1526.570679 	0           	                	;										
 1171            	1537.864624 	0           	                	;										
 1173            	1538.129761 	0           	                	;										
 1174            	1520        	0           	                	;										
 1175            	1520        	0           	                	;										
 1176            	1534.893066 	0           	                	;										
 1177            	1510.883667 	0           	                	;										
 1189            	1527.656372 	0.011574    	Continuo        	;										
 1190            	1527.66     	0           	                	;										
 1191            	1547.019653 	0           	                	;										
 1192            	1546.940552 	0           	                	;										
 12              	1487        	0.011574    	5-10_AM_Y_16-20_PM	;										
 1209            	1525        	0.11574     	5-10_AM_Y_16-20_PM	;										
 1217            	1510.079834 	0           	                	;										
 1218            	1500.128784 	0           	                	;										
 1219            	1509.913696 	0           	                	;										
 1220            	1559.422485 	0           	                	;										
 1223            	1553.043823 	0           	                	;										
 1224            	1481.536865 	0.011574    	5-10_AM_Y_16-20_PM	;										
 1225            	1481.195923 	0.011574    	5-10_AM_Y_16-20_PM	;										
 1226            	1494.515869 	0.011574    	5-10_AM_Y_16-20_PM	;										
 1227            	1494.583008 	0.011574    	5-10_AM_Y_16-20_PM	;										
 1228            	1491.637207 	0.011574    	5-10_AM_Y_16-20_PM	;										
 1229            	1491.869019 	0.011574    	5-10_AM_Y_16-20_PM	;										
 1230            	1491.927856 	0.011574    	5-10_AM_Y_16-20_PM	;										
 1231            	1491.228394 	0.011574    	5-10_AM_Y_16-20_PM	;										
 1232            	1491.445801 	0.069444    	5-10_AM_Y_16-20_PM	;										
 1233            	1490.729492 	0.011574    	5-10_AM_Y_16-20_PM	;										
 1234            	1493.4552   	0.011574    	5-10_AM_Y_16-20_PM	;										
 1235            	1488.053345 	0.011574    	5-10_AM_Y_16-20_PM	;										
 1236            	1487.81897  	0.011574    	5-10_AM_Y_16-20_PM	;										
 1237            	1489.762817 	0.011574    	5-10_AM_Y_16-20_PM	;										
 1238            	1485.423218 	0.011574    	5-10_AM_Y_16-20_PM	;										
 1239            	1487.082031 	0.011574    	5-10_AM_Y_16-20_PM	;										
 1240            	1486.853271 	0.011574    	5-10_AM_Y_16-20_PM	;										
 1241            	1484.55249  	0.011574    	5-10_AM_Y_16-20_PM	;										
 1242            	1485.468262 	0.011574    	5-10_AM_Y_16-20_PM	;										
 1243            	1487.489014 	0.011574    	5-10_AM_Y_16-20_PM	;										
 1244            	1486.338867 	0.011574    	5-10_AM_Y_16-20_PM	;										
 1245            	1483.033691 	0.011574    	5-10_AM_Y_16-20_PM	;										
 1246            	1482.408691 	0.011574    	5-10_AM_Y_16-20_PM	;										
 1247            	1483.979858 	0.011574    	5-10_AM_Y_16-20_PM	;										
 1248            	1487.007813 	0.011574    	5-10_AM_Y_16-20_PM	;										
 1249            	1486.199829 	0           	                	;										
 1250            	1486.2      	0.011574    	5-10_AM_Y_16-20_PM	;										
 1251            	1489.240723 	0.011574    	5-10_AM_Y_16-20_PM	;										
 1252            	1490.257568 	0.011574    	5-10_AM_Y_16-20_PM	;										
 1253            	1486.746582 	0           	                	;										
 1254            	1489.415527 	0.011574    	5-10_AM_Y_16-20_PM	;										
 1255            	1486.679199 	0           	                	;										
 1256            	1487.399658 	0.011574    	5-10_AM_Y_16-20_PM	;										
 1257            	1483.384033 	0.011574    	5-10_AM_Y_16-20_PM	;										
 1258            	1483.788574 	0.011574    	5-10_AM_Y_16-20_PM	;										
 1259            	1486.432617 	0.011574    	5-10_AM_Y_16-20_PM	;										
 1260            	1491.405273 	0           	                	;										
 1261            	1488.619263 	0           	                	;										
 1262            	1488.549072 	0           	                	;										
 1263            	1481.031616 	0           	                	;										
 1264            	1487.063354 	0           	                	;										
 1265            	1481.949219 	0           	                	;										
 1266            	1480.104126 	0           	                	;										
 1267            	1481.948853 	0.011574    	5-10_AM_Y_16-20_PM	;										
 1269            	1481.182983 	0.011574    	5-10_AM_Y_16-20_PM	;										
 1270            	1482.067383 	0.011574    	5-10_AM_Y_16-20_PM	;										
 1271            	1482.071655 	0           	                	;										
 1272            	1481.69104  	0.011574    	5-10_AM_Y_16-20_PM	;										
 1273            	1483.205933 	0           	                	;										
 1274            	1485.020752 	0.011574    	5-10_AM_Y_16-20_PM	;										
 1275            	1485.821533 	0.011574    	5-10_AM_Y_16-20_PM	;										
 1276            	1484.45459  	0.011574    	5-10_AM_Y_16-20_PM	;										
 1277            	1482.056519 	0.011574    	5-10_AM_Y_16-20_PM	;										
 1278            	1486.335083 	0.011574    	5-10_AM_Y_16-20_PM	;										
 1279            	1490.541138 	0.011574    	5-10_AM_Y_16-20_PM	;										
 1280            	1487.439209 	0.05787     	5-10_AM_Y_16-20_PM	;										
 1281            	1487.280151 	0           	                	;										
 1282            	1487.766113 	0           	                	;										
 1283            	1483.401978 	0.011574    	5-10_AM_Y_16-20_PM	;										
 1284            	1483.883545 	0.011574    	5-10_AM_Y_16-20_PM	;										
 1285            	1484.190308 	0.011574    	5-10_AM_Y_16-20_PM	;										
 1286            	1489.118896 	0.011574    	5-10_AM_Y_16-20_PM	;										
 1287            	1489.919556 	0.011574    	5-10_AM_Y_16-20_PM	;										
 1288            	1492.309448 	0.05787     	5-10_AM_Y_16-20_PM	;										
 1289            	1492.144287 	0.011574    	5-10_AM_Y_16-20_PM	;										
 1290            	1491.995117 	0.011574    	5-10_AM_Y_16-20_PM	;										
 1291            	1493.879761 	0.011574    	5-10_AM_Y_16-20_PM	;										
 1292            	1493.841064 	0.046296    	5-10_AM_Y_16-20_PM	;										
 1293            	1497.280029 	0.011574    	5-10_AM_Y_16-20_PM	;										
 1294            	1485.748657 	0           	                	;										
 1295            	1482.425171 	0.011574    	5-10_AM_Y_16-20_PM	;										
 1296            	1488.359497 	0.011574    	5-10_AM_Y_16-20_PM	;										
 1297            	1476.708374 	0.011574    	5-10_AM_Y_16-20_PM	;										
 1298            	1480        	0.046296    	5-10_AM_Y_16-20_PM	;										
 1299            	1480        	0           	                	;										
 13              	1487        	0.011574    	5-10_AM_Y_16-20_PM	;										
 1300            	1477.976196 	0.011574    	5-10_AM_Y_16-20_PM	;										
 1301            	1478.774536 	0           	                	;										
 1302            	1479.547485 	0.011574    	5-10_AM_Y_16-20_PM	;										
 1303            	1480        	0.011574    	5-10_AM_Y_16-20_PM	;										
 1304            	1483.401978 	0.011574    	5-10_AM_Y_16-20_PM	;										
 1305            	1477.564453 	0.011574    	5-10_AM_Y_16-20_PM	;										
 1306            	1480.965088 	0.011574    	5-10_AM_Y_16-20_PM	;										
 1307            	1481.145142 	0.011574    	5-10_AM_Y_16-20_PM	;										
 1308            	1481.145142 	0.011574    	5-10_AM_Y_16-20_PM	;										
 1309            	1480        	0.011574    	5-10_AM_Y_16-20_PM	;										
 1310            	1479.55     	0.011574    	5-10_AM_Y_16-20_PM	;										
 1311            	1477.688843 	0.011574    	5-10_AM_Y_16-20_PM	;										
 1312            	1480        	0.011574    	5-10_AM_Y_16-20_PM	;										
 1313            	1476.958618 	0.011574    	5-10_AM_Y_16-20_PM	;										
 1314            	1480.217407 	0.011574    	5-10_AM_Y_16-20_PM	;										
 1315            	1476.774536 	0.011574    	5-10_AM_Y_16-20_PM	;										
 1316            	1475.825562 	0.046296    	5-10_AM_Y_16-20_PM	;										
 1317            	1479.364624 	0.011574    	5-10_AM_Y_16-20_PM	;										
 1318            	1478.742188 	0.011574    	5-10_AM_Y_16-20_PM	;										
 1319            	1478.802124 	0.011574    	5-10_AM_Y_16-20_PM	;										
 1320            	1477.07373  	0.011574    	5-10_AM_Y_16-20_PM	;										
 1321            	1478.225342 	0.011574    	5-10_AM_Y_16-20_PM	;										
 1322            	1476.341553 	0.011574    	5-10_AM_Y_16-20_PM	;										
 1323            	1491.744019 	0           	                	;										
 1330            	1489.78     	0           	                	;										
 1331            	1502.929199 	0.011574    	5-10_AM_Y_16-20_PM	;										
 1332            	1496.936523 	0.011574    	5-10_AM_Y_16-20_PM	;										
 1333            	1498.640625 	0.011574    	5-10_AM_Y_16-20_PM	;										
 1334            	1498.241943 	0.011574    	5-10_AM_Y_16-20_PM	;										
 1335            	1490.648071 	0.046296    	5-10_AM_Y_16-20_PM	;										
 1336            	1501.937866 	0           	                	;										
 1337            	1501.937866 	0.011574    	5-10_AM_Y_16-20_PM	;										
 1338            	1501.591797 	0           	                	;										
 1339            	1501.591797 	0.011574    	5-10_AM_Y_16-20_PM	;										
 1340            	1501.224243 	0.011574    	5-10_AM_Y_16-20_PM	;										
 1341            	1501.412476 	0           	                	;										
 1342            	1495.262939 	0.046296    	5-10_AM_Y_16-20_PM	;										
 1343            	1536.645264 	0           	                	;										
 1344            	1536.880859 	0           	                	;										
 1345            	1537.074097 	0           	                	;										
 1346            	1539.800293 	0           	                	;										
 1347            	1559.228027 	0           	                	;										
 1348            	1510.036133 	0           	                	;										
 1349            	1510.510376 	0.05787     	5-10_AM_Y_16-20_PM	;										
 1350            	1504.433105 	0.046296    	5-10_AM_Y_16-20_PM	;										
 1351            	1507.1875   	0.046296    	5-10_AM_Y_16-20_PM	;										
 1352            	1511.561523 	0.011574    	5-10_AM_Y_16-20_PM	;										
 1353            	1519.51     	0           	                	;										
 1354            	1500.473755 	0           	                	;										
 1367            	1560        	0           	                	;										
 1368            	1523.015869 	0.011574    	5-10_AM_Y_16-20_PM	;										
 1369            	1525.250366 	0.011574    	5-10_AM_Y_16-20_PM	;										
 1370            	1521.729248 	0.011574    	5-10_AM_Y_16-20_PM	;										
 1371            	1520.360962 	0.011574    	5-10_AM_Y_16-20_PM	;										
 1372            	1520.000122 	0.011574    	5-10_AM_Y_16-20_PM	;										
 1373            	1520.000122 	0           	                	;										
 1374            	1520        	0.011574    	5-10_AM_Y_16-20_PM	;										
 1375            	1524.595093 	0.011574    	5-10_AM_Y_16-20_PM	;										
 1376            	1526.530762 	0.011574    	5-10_AM_Y_16-20_PM	;										
 1377            	1526.717041 	0.011574    	5-10_AM_Y_16-20_PM	;										
 1378            	1526.956299 	0.011574    	5-10_AM_Y_16-20_PM	;										
 1379            	1522.613892 	0.011574    	5-10_AM_Y_16-20_PM	;										
 1380            	1527.003784 	0           	                	;										
 1381            	1517.346313 	0.011574    	5-10_AM_Y_16-20_PM	;										
 1382            	1519.843872 	0.011574    	5-10_AM_Y_16-20_PM	;										
 1383            	1519.599976 	0.011574    	5-10_AM_Y_16-20_PM	;										
 1384            	1520        	0.011574    	5-10_AM_Y_16-20_PM	;										
 1385            	1513.545654 	0.011574    	5-10_AM_Y_16-20_PM	;										
 1386            	1513.501953 	0.011574    	5-10_AM_Y_16-20_PM	;										
 1387            	1519.779907 	0           	                	;										
 1388            	1511.135376 	0           	                	;										
 1389            	1515.372314 	0           	                	;										
 1390            	1520.044434 	0.011574    	5-10_AM_Y_16-20_PM	;										
 1391            	1520        	0.011574    	5-10_AM_Y_16-20_PM	;										
 1392            	1520.591919 	0.011574    	5-10_AM_Y_16-20_PM	;										
 1393            	1523.277588 	0.011574    	5-10_AM_Y_16-20_PM	;										
 1394            	1514.573242 	0.011574    	5-10_AM_Y_16-20_PM	;										
 1395            	1514.485229 	0.011574    	5-10_AM_Y_16-20_PM	;										
 1396            	1516.326294 	0.011574    	5-10_AM_Y_16-20_PM	;										
 1397            	1516.301025 	0           	                	;										
 1398            	1515.410767 	0.011574    	5-10_AM_Y_16-20_PM	;										
 1399            	1520        	0           	                	;										
 14              	1487        	0.011574    	5-10_AM_Y_16-20_PM	;										
 1400            	1520        	0           	                	;										
 1401            	1511.489746 	0           	                	;										
 1402            	1523.957031 	0           	                	;										
 1403            	1528.30957  	0           	                	;										
 1404            	1513.434937 	0.011574    	5-10_AM_Y_16-20_PM	;										
 1405            	1527.156128 	0.011574    	5-10_AM_Y_16-20_PM	;										
 1406            	1528.109375 	0           	                	;										
 1407            	1528.311279 	0.069444    	5-10_AM_Y_16-20_PM	;										
 1408            	1526.644775 	0.011574    	5-10_AM_Y_16-20_PM	;										
 1409            	1526.875122 	0.069444    	5-10_AM_Y_16-20_PM	;										
 1410            	1525.480713 	0.069444    	5-10_AM_Y_16-20_PM	;										
 1411            	1523.24646  	0.069444    	5-10_AM_Y_16-20_PM	;										
 1412            	1521.959595 	0.069444    	5-10_AM_Y_16-20_PM	;										
 1413            	1524.287476 	0.011574    	5-10_AM_Y_16-20_PM	;										
 1414            	1523.376831 	0.011574    	5-10_AM_Y_16-20_PM	;										
 1415            	1523.05896  	0.011574    	5-10_AM_Y_16-20_PM	;										
 1416            	1520.935791 	0.011574    	5-10_AM_Y_16-20_PM	;										
 1417            	1520        	0.011574    	5-10_AM_Y_16-20_PM	;										
 1418            	1520        	0.011574    	5-10_AM_Y_16-20_PM	;										
 1419            	1520        	0.011574    	5-10_AM_Y_16-20_PM	;										
 1420            	1520        	0           	                	;										
 1421            	1527.599365 	0.011574    	5-10_AM_Y_16-20_PM	;										
 1422            	1528.086182 	0.011574    	5-10_AM_Y_16-20_PM	;										
 1423            	1534.841553 	0           	                	;										
 1424            	1520        	0           	                	;										
 1427            	1502.337036 	0           	                	;										
 1428            	1502.337036 	0.011574    	5-10_AM_Y_16-20_PM	;										
 1429            	1505.398804 	0           	                	;										
 1430            	1505.398804 	0.011574    	5-10_AM_Y_16-20_PM	;										
 1431            	1520        	0.011574    	5-10_AM_Y_16-20_PM	;										
 1432            	1521.060303 	0.011574    	5-10_AM_Y_16-20_PM	;										
 1433            	1522.128662 	0.011574    	5-10_AM_Y_16-20_PM	;										
 1434            	1525.233521 	0           	                	;										
 1435            	1521.630005 	0           	                	;										
 1436            	1521.907349 	0.011574    	5-10_AM_Y_16-20_PM	;										
 1437            	1524.766235 	0.011574    	5-10_AM_Y_16-20_PM	;										
 1438            	1519.999878 	0.011574    	5-10_AM_Y_16-20_PM	;										
 1439            	1519.680908 	0.011574    	5-10_AM_Y_16-20_PM	;										
 1440            	1520.871216 	0.011574    	5-10_AM_Y_16-20_PM	;										
 1441            	1522.614014 	0.011574    	5-10_AM_Y_16-20_PM	;										
 1442            	1522.108276 	0.011574    	5-10_AM_Y_16-20_PM	;										
 1443            	1521.290405 	0.011574    	5-10_AM_Y_16-20_PM	;										
 1444            	1520.296021 	0.011574    	5-10_AM_Y_16-20_PM	;										
 1445            	1520.536133 	0.011574    	5-10_AM_Y_16-20_PM	;										
 1446            	1521.51709  	0.011574    	5-10_AM_Y_16-20_PM	;										
 1447            	1522.832764 	0.011574    	5-10_AM_Y_16-20_PM	;										
 1448            	1521.786499 	0.011574    	5-10_AM_Y_16-20_PM	;										
 1449            	1521.086792 	0.011574    	5-10_AM_Y_16-20_PM	;										
 1450            	1520.577393 	0.011574    	5-10_AM_Y_16-20_PM	;										
 1451            	1519.819458 	0.011574    	5-10_AM_Y_16-20_PM	;										
 1452            	1520        	0.011574    	5-10_AM_Y_16-20_PM	;										
 1453            	1520.886841 	0.011574    	5-10_AM_Y_16-20_PM	;										
 1454            	1522.172485 	0.011574    	5-10_AM_Y_16-20_PM	;										
 1455            	1520.473267 	0.011574    	5-10_AM_Y_16-20_PM	;										
 1456            	1518.787964 	0.011574    	5-10_AM_Y_16-20_PM	;										
 1457            	1519.130493 	0.011574    	5-10_AM_Y_16-20_PM	;										
 1458            	1520.44812  	0.011574    	5-10_AM_Y_16-20_PM	;										
 1459            	1521.144775 	0.011574    	5-10_AM_Y_16-20_PM	;										
 1460            	1518.321045 	0.011574    	5-10_AM_Y_16-20_PM	;										
 1461            	1515.112915 	0.011574    	5-10_AM_Y_16-20_PM	;										
 1462            	1514.875854 	0.011574    	5-10_AM_Y_16-20_PM	;										
 1463            	1514.653931 	0.011574    	5-10_AM_Y_16-20_PM	;										
 1464            	1517.29895  	0.011574    	5-10_AM_Y_16-20_PM	;										
 1465            	1517.540161 	0.011574    	5-10_AM_Y_16-20_PM	;										
 1466            	1517.781616 	0.011574    	5-10_AM_Y_16-20_PM	;										
 1467            	1517.835083 	0.069444    	5-10_AM_Y_16-20_PM	;										
 1468            	1517.307617 	0.011574    	5-10_AM_Y_16-20_PM	;										
 1469            	1516.210083 	0.011574    	5-10_AM_Y_16-20_PM	;										
 1470            	1517.618774 	0.011574    	5-10_AM_Y_16-20_PM	;										
 1471            	1484.741455 	0           	                	;										
 1472            	1520        	0.011574    	5-10_AM_Y_16-20_PM	;										
 1473            	1515.704468 	0.011574    	5-10_AM_Y_16-20_PM	;										
 1474            	1514.955688 	0.011574    	5-10_AM_Y_16-20_PM	;										
 1475            	1514.896362 	0.011574    	5-10_AM_Y_16-20_PM	;										
 1476            	1513.921997 	0.011574    	5-10_AM_Y_16-20_PM	;										
 1477            	1514.029541 	0.011574    	5-10_AM_Y_16-20_PM	;										
 1478            	1521.883057 	0.011574    	5-10_AM_Y_16-20_PM	;										
 1479            	1518.598145 	0.011574    	5-10_AM_Y_16-20_PM	;										
 1480            	1518.598145 	0           	                	;										
 1481            	1516.098999 	0           	                	;										
 1482            	1516.919067 	0.011574    	5-10_AM_Y_16-20_PM	;										
 1483            	1516.494995 	0           	                	;										
 1484            	1516.494995 	0           	                	;										
 1485            	1516.494995 	0           	                	;										
 1486            	1519.430176 	0.011574    	5-10_AM_Y_16-20_PM	;										
 1487            	1516.470337 	0.011574    	5-10_AM_Y_16-20_PM	;										
 1488            	1520.947998 	0.011574    	5-10_AM_Y_16-20_PM	;										
 1489            	1514.249634 	0.046296    	5-10_AM_Y_16-20_PM	;										
 1490            	1493.952393 	0.011574    	5-10_AM_Y_16-20_PM	;										
 1491            	1493.035522 	0.011574    	5-10_AM_Y_16-20_PM	;										
 1492            	1496.726929 	0           	                	;										
 1493            	1505.52124  	0.011574    	5-10_AM_Y_16-20_PM	;										
 1494            	1504.637695 	0.011574    	5-10_AM_Y_16-20_PM	;										
 1495            	1504.404419 	0.011574    	5-10_AM_Y_16-20_PM	;										
 15              	1486        	0.011574    	5-10_AM_Y_16-20_PM	;										
 1500            	1522        	0.011574    	5-10_AM_Y_16-20_PM	;										
 1501            	1498.073975 	0           	                	;										
 1512            	1484.667847 	0.011574    	5-10_AM_Y_16-20_PM	;										
 1513            	1523        	0.05787     	5-10_AM_Y_16-20_PM	;										
 1514            	1520        	0.011574    	5-10_AM_Y_16-20_PM	;										
 1515            	1520        	0.11574     	5-10_AM_Y_16-20_PM	;										
 1516            	1498.680786 	0.011574    	5-10_AM_Y_16-20_PM	;										
 1517            	1503.279419 	0.011574    	5-10_AM_Y_16-20_PM	;										
 1518            	1498.680786 	0.011574    	5-10_AM_Y_16-20_PM	;										
 1519            	1475.412354 	0           	                	;										
 1520            	1475.276245 	0.011574    	5-10_AM_Y_16-20_PM	;										
 1521            	1477.900635 	0.011574    	5-10_AM_Y_16-20_PM	;										
 1522            	1477.993774 	0.046296    	5-10_AM_Y_16-20_PM	;										
 1523            	1491.960815 	0.046296    	5-10_AM_Y_16-20_PM	;										
 1524            	1503.956421 	0.011574    	5-10_AM_Y_16-20_PM	;										
 1525            	1504.449707 	0           	                	;										
 1526            	1498.680786 	0.011574    	5-10_AM_Y_16-20_PM	;										
 1527            	1504.968384 	0.011574    	5-10_AM_Y_16-20_PM	;										
 1528            	1498.680786 	0.011574    	5-10_AM_Y_16-20_PM	;										
 1529            	1519.342896 	0.011574    	5-10_AM_Y_16-20_PM	;										
 1530            	1498.072021 	0.011574    	5-10_AM_Y_16-20_PM	;										
 1536            	1530.1      	0           	                	;										
 1537            	1525.23     	0           	                	;										
 1538            	1498.680786 	0.011574    	5-10_AM_Y_16-20_PM	;										
 1542            	1498.680786 	0.011574    	5-10_AM_Y_16-20_PM	;										
 1543            	0           	0           	                	;										
 1553            	1498.680786 	0.011574    	5-10_AM_Y_16-20_PM	;										
 1554            	1498.680786 	0.011574    	5-10_AM_Y_16-20_PM	;										
 1555            	1498.680786 	0.011574    	5-10_AM_Y_16-20_PM	;										
 1557            	1520        	0.011574    	5-10_AM_Y_16-20_PM	;										
 1558            	1519        	0.05787     	5-10_AM_Y_16-20_PM	;										
 1559            	1517        	0.011574    	5-10_AM_Y_16-20_PM	;										
 1560            	1517        	0.208332    	5-10_AM_Y_16-20_PM	;										
 1561            	1517        	0.011574    	5-10_AM_Y_16-20_PM	;										
 1563            	1533.01     	0           	                	;										
 1569            	1514        	0.011574    	5-10_AM_Y_16-20_PM	;										
 1572            	1514        	0.208332    	5-10_AM_Y_16-20_PM	;										
 1573            	1514        	0.011574    	5-10_AM_Y_16-20_PM	;										
 1574            	1524        	0.011574    	5-10_AM_Y_16-20_PM	;										
 1575            	1524        	0.011574    	5-10_AM_Y_16-20_PM	;										
 1576            	1524        	0.011574    	5-10_AM_Y_16-20_PM	;										
 1577            	1522        	0.011574    	5-10_AM_Y_16-20_PM	;										
 1581            	1521        	0.011574    	5-10_AM_Y_16-20_PM	;										
 1582            	1519        	0.011574    	5-10_AM_Y_16-20_PM	;										
 1583            	1519        	0           	                	;										
 1584            	1519        	0.011574    	5-10_AM_Y_16-20_PM	;										
 1585            	1510.633789 	0           	                	;										
 1589            	1517        	0.011574    	5-10_AM_Y_16-20_PM	;										
 1591            	1563.83     	0           	                	;										
 1592            	1514.7      	0           	                	;										
 1594            	1516        	0.011574    	5-10_AM_Y_16-20_PM	;										
 1595            	1525        	0.011574    	5-10_AM_Y_16-20_PM	;										
 1596            	1524        	0.011574    	5-10_AM_Y_16-20_PM	;										
 1597            	1524.77     	0           	                	;										
 1599            	1485        	0.138889    	5-10_AM_Y_16-20_PM	;										
 16              	1486        	0.011574    	5-10_AM_Y_16-20_PM	;										
 160             	1516        	0.011574    	5-10_AM_Y_16-20_PM	;										
 1600            	1484        	0.011574    	5-10_AM_Y_16-20_PM	;										
 1601            	1483        	0.011574    	5-10_AM_Y_16-20_PM	;										
 1602            	1482        	0.011574    	5-10_AM_Y_16-20_PM	;										
 1603            	1481        	0.138889    	5-10_AM_Y_16-20_PM	;										
 1604            	1481        	0.011574    	5-10_AM_Y_16-20_PM	;										
 1605            	1481        	0.011574    	5-10_AM_Y_16-20_PM	;										
 1606            	1521        	0.011574    	5-10_AM_Y_16-20_PM	;										
 1607            	1520        	0.011574    	5-10_AM_Y_16-20_PM	;										
 1609            	1520        	0.011574    	5-10_AM_Y_16-20_PM	;										
 1610            	1519        	0           	                	;										
 1611            	1519        	0.011574    	5-10_AM_Y_16-20_PM	;										
 1612            	1557.69     	0           	                	;										
 1613            	1517        	0           	                	;										
 1614            	1515        	0.011574    	5-10_AM_Y_16-20_PM	;										
 1615            	1514        	0.011574    	5-10_AM_Y_16-20_PM	;										
 1616            	1514        	0.011574    	5-10_AM_Y_16-20_PM	;										
 1617            	1524        	0.05787     	5-10_AM_Y_16-20_PM	;										
 1619            	1526        	0.011574    	5-10_AM_Y_16-20_PM	;										
 1636            	1524        	0.011574    	5-10_AM_Y_16-20_PM	;										
 1637            	1518        	0.011574    	5-10_AM_Y_16-20_PM	;										
 1638            	1521        	0.011574    	5-10_AM_Y_16-20_PM	;										
 1639            	1517        	0.011574    	5-10_AM_Y_16-20_PM	;										
 1641            	1515        	0.011574    	5-10_AM_Y_16-20_PM	;										
 1642            	1514        	0.011574    	5-10_AM_Y_16-20_PM	;										
 1643            	1525        	0.011574    	5-10_AM_Y_16-20_PM	;										
 1644            	1523        	0.011574    	5-10_AM_Y_16-20_PM	;										