; Filename: ../nets_examples/Xicotepec_UAM_9.inp
; WNTR: 0.3.0
; Created: 2021-02-14 02:53:19
[TITLE]

[JUNCTIONS]
;ID                      Elevation       Demand Pattern                 
 n_1010                          1235               0 Domestica                  ;
 n_1011                   1228.516479               0 Domestica                  ;
 n_1012                   1155.585815               0 Tabacal_bajo               ;
 n_1017                   1155.335693     0.005555556 Tabacal_bajo               ;
 n_1018                   1185.912598     0.002777778 Tabacal                    ;
 n_102                    1212.643677               0 Domestica                  ;
 n_1021                   1179.831787               0 Domestica                  ;
 n_1022                   1179.674072               0 Domestica                  ;
 n_106                    1227.229858     0.005555556 Tabacal                    ;
 n_1060                   1227.270508               0 Domestica                  ;
 n_1062                   1220.602417               0 Domestica                  ;
 n_1101                   1152.377808     0.002777778 Tabacal_bajo               ;
 n_1102                   1151.890991               0 Tabacal_bajo               ;
 n_1126                          1160        0.014815 Domestica                  ;
 n_1168                          1160        0.014815 Domestica                  ;
 n_1194                   1147.716309       0.0074075 Tandeo_01                  ;
 n_1202                   1123.332153       0.0074075 Tandeo_01                  ;
 n_1203                   1130.945557               0 Domestica                  ;
 n_1216                   1144.837402        0.014815 Domestica                  ;
 n_1217                   1146.380737        0.014815 Domestica                  ;
 n_1222                   1151.613281       0.0074075 Tandeo_01                  ;
 n_1223                   1157.775635               0 Domestica                  ;
 n_1224                          1160       0.0074075 Tandeo_01                  ;
 n_1226                   1160.383667       0.0074075 Tandeo_01                  ;
 n_1231                   1164.387695        0.014815 Domestica                  ;
 n_1258                          1160               0 Domestica                  ;
 n_1259                          1160               0 Domestica                  ;
 n_1270                          1180               0 Domestica                  ;
 n_1288                          1160               0 Domestica                  ;
 n_1289                          1180               0 Domestica                  ;
 n_129                           1180               0 Domestica                  ;
 n_1290                          1180               0 Domestica                  ;
 n_1292                    1179.25647        0.014815 Domestica                  ;
 n_1307                          1180        0.014815 Domestica                  ;
 n_1319                          1180               0 Domestica                  ;
 n_1333                   1181.426514               0 Domestica                  ;
 n_1353                   1215.707642     0.002777778 Tabacal                    ;
 n_1356                   1219.260986               0 Domestica                  ;
 n_1364                          1235               0 Domestica                  ;
 n_1366                   1209.710693               0 Domestica                  ;
 n_1367                   1213.685181               0 Domestica                  ;
 n_137                    1197.773193     0.002777778 Tabacal                    ;
 n_1370                          1180               0 Domestica                  ;
 n_1378                   1151.244141        0.014815 Domestica                  ;
 n_140                           1160               0 Domestica                  ;
 n_1408                          1160       0.0074075 Tandeo_01                  ;
 n_1409                          1160        0.014815 Domestica                  ;
 n_141                           1160       0.0074075 Tandeo_01                  ;
 n_1410                          1160       0.0074075 Tandeo_01                  ;
 n_1419                   1167.613403        0.014815 Domestica                  ;
 n_1420                   1161.496338       0.0074075 Tandeo_01                  ;
 n_1441                   1165.598389        0.014815 Domestica                  ;
 n_1442                          1160        0.014815 Domestica                  ;
 n_1446                          1180               0 Domestica                  ;
 n_1451                          1160       0.0074075 Tandeo_01                  ;
 n_1452                   1146.577759       0.0074075 Tandeo_01                  ;
 n_1453                          1160       0.0074075 Tandeo_01                  ;
 n_1456                   1161.658081        0.014815 Domestica                  ;
 n_1460                    1162.31897        0.014815 Domestica                  ;
 n_147                           1160       0.0074075 Tandeo_01                  ;
 n_1481                          1160       0.0074075 Tandeo_01                  ;
 n_1482                          1160       0.0074075 Tandeo_01                  ;
 n_1483                          1160       0.0074075 Tandeo_01                  ;
 n_1487                   1158.701294       0.0074075 Tandeo_01                  ;
 n_1490                          1160       0.0074075 Tandeo_01                  ;
 n_1491                          1160       0.0074075 Tandeo_01                  ;
 n_1492                          1160       0.0074075 Tandeo_01                  ;
 n_1494                          1160       0.0074075 Tandeo_01                  ;
 n_1501                          1160        0.014815 Domestica                  ;
 n_1502                          1160        0.014815 Domestica                  ;
 n_1520                   1161.129639       0.0074075 Tandeo_01                  ;
 n_1523                    1160.78418       0.0074075 Tandeo_01                  ;
 n_1530                   1161.699951        0.014815 Domestica                  ;
 n_1539                          1160               0 Domestica                  ;
 n_154                           1160               0 Domestica                  ;
 n_1544                          1160               0 Domestica                  ;
 n_1561                   1155.363525               0 Tabacal_bajo               ;
 n_1562                   1155.034302     0.005555556 Tabacal_bajo               ;
 n_1566                   1157.233154     0.002777778 Tabacal_bajo               ;
 n_1567                   1158.709717     0.002777778 Tabacal_bajo               ;
 n_1570                   1162.690674     0.005555556 Tabacal_bajo               ;
 n_1592                   1160.926636       0.0074075 Tandeo_01                  ;
 n_1593                   1160.966675       0.0074075 Tandeo_01                  ;
 n_1595                   1213.399048     0.002777778 Tabacal                    ;
 n_1639                   1199.498291               0 Domestica                  ;
 n_1642                   1160.000122        0.014815 Domestica                  ;
 n_1671                          1200        0.014815 Domestica                  ;
 n_1688                   1181.724121        0.014815 Domestica                  ;
 n_1689                   1180.061523        0.014815 Domestica                  ;
 n_1700                   1178.905884               0 Domestica                  ;
 n_1718                          1160               0 Domestica                  ;
 n_1719                          1160               0 Domestica                  ;
 n_172                           1160               0 Domestica                  ;
 n_1723                   1185.712036               0 Domestica                  ;
 n_1726                          1180               0 Domestica                  ;
 n_1727                          1180               0 Domestica                  ;
 n_1728                          1180               0 Domestica                  ;
 n_173                    1161.490234       0.0074075 Tandeo_01                  ;
 n_1752                          1180        0.014815 Domestica                  ;
 n_1756                          1180        0.014815 Domestica                  ;
 n_1757                          1180        0.014815 Domestica                  ;
 n_1759                          1180        0.014815 Domestica                  ;
 n_176                           1180        0.014815 Domestica                  ;
 n_1760                          1180        0.014815 Domestica                  ;
 n_1766                    1222.70752               0 Domestica                  ;
 n_1767                          1220               0 Domestica                  ;
 n_1768                          1220               0 Domestica                  ;
 n_1772                     1160.6875        0.014815 Domestica                  ;
 n_1773                   1160.913696        0.014815 Domestica                  ;
 n_1778                   1161.151123        0.014815 Domestica                  ;
 n_1783                          1160               0 Domestica                  ;
 n_1788                          1160        0.014815 Domestica                  ;
 n_1792                          1160       0.0074075 Tandeo_01                  ;
 n_1794                          1160       0.0074075 Tandeo_01                  ;
 n_1795                   1162.937988        0.014815 Domestica                  ;
 n_180                           1160       0.0074075 Tandeo_01                  ;
 n_1800                          1160       0.0074075 Tandeo_01                  ;
 n_1801                   1159.999878       0.0074075 Tandeo_01                  ;
 n_1803                          1160       0.0074075 Tandeo_01                  ;
 n_1811                   1160.370239       0.0074075 Tandeo_01                  ;
 n_1816                          1160       0.0074075 Tandeo_01                  ;
 n_1817                          1160        0.014815 Domestica                  ;
 n_1819                          1160       0.0074075 Tandeo_01                  ;
 n_1826                   1160.241211       0.0074075 Tandeo_01                  ;
 n_1827                          1160       0.0074075 Tandeo_01                  ;
 n_1828                    1160.65564       0.0074075 Tandeo_01                  ;
 n_1829                   1160.097656       0.0074075 Tandeo_01                  ;
 n_183                    1160.317261       0.0074075 Tandeo_01                  ;
 n_1830                   1160.557251       0.0074075 Tandeo_01                  ;
 n_1831                          1160       0.0074075 Tandeo_01                  ;
 n_1832                          1160       0.0074075 Tandeo_01                  ;
 n_185                    1161.322754        0.014815 Domestica                  ;
 n_1856                   1160.903198       0.0074075 Tandeo_01                  ;
 n_1857                   1160.255127       0.0074075 Tandeo_01                  ;
 n_1859                          1160               0 Domestica                  ;
 n_186                           1160       0.0074075 Tandeo_01                  ;
 n_1876                   1128.043335       0.0074075 Tandeo_01                  ;
 n_1884                          1160        0.014815 Domestica                  ;
 n_1895                    1162.92395       0.0074075 Tandeo_01                  ;
 n_1901                    1161.05603       0.0074075 Tandeo_01                  ;
 n_1903                   1161.856445               0 Domestica                  ;
 n_1914                   1145.564087               0 Domestica                  ;
 n_1918                   1157.966675               0 Domestica                  ;
 n_1928                          1160        0.014815 Domestica                  ;
 n_1933                          1180               0 Domestica                  ;
 n_1942                   1164.892578        0.014815 Domestica                  ;
 n_1943                   1164.899048               0 Domestica                  ;
 n_1947                   1164.831665        0.014815 Domestica                  ;
 n_1948                   1164.836792               0 Domestica                  ;
 n_1949                          1165               0 Domestica                  ;
 n_195                     1173.31897               0 Domestica                  ;
 n_1950                   1164.837891               0 Domestica                  ;
 n_1951                   1164.612183               0 Domestica                  ;
 n_1952                          1180               0 Domestica                  ;
 n_1953                          1160       0.0074075 Tandeo_01                  ;
 n_1954                          1160        0.014815 Domestica                  ;
 n_1959                   1159.999878        0.014815 Domestica                  ;
 n_196                           1160        0.014815 Domestica                  ;
 n_1960                   1218.063721               0 Domestica                  ;
 n_1961                   1162.989746        0.014815 Domestica                  ;
 n_1963                   1160.427368       0.0074075 Tandeo_01                  ;
 n_1967                          1160        0.014815 Domestica                  ;
 n_1968                   1178.680054               0 Domestica                  ;
 n_1969                   1217.119019               0 Domestica                  ;
 n_197                           1160       0.0074075 Tandeo_01                  ;
 n_1970                          1160       0.0074075 Tandeo_01                  ;
 n_1971                          1200        0.014815 Domestica                  ;
 n_1974                   1229.171021        0.014815 Domestica                  ;
 n_198                           1160       0.0074075 Tandeo_01                  ;
 n_1981                   1160.307373       0.0074075 Tandeo_01                  ;
 n_1983                          1160        0.014815 Domestica                  ;
 n_1984                          1160        0.014815 Domestica                  ;
 n_1985                          1160       0.0074075 Tandeo_01                  ;
 n_1986                   1170.222168        0.014815 Domestica                  ;
 n_1987                   1169.051758        0.014815 Domestica                  ;
 n_1988                   1207.885254               0 Domestica                  ;
 n_1989                          1160               0 Domestica                  ;
 n_199                           1225               0 Domestica                  ;
 n_1990                   1160.033325        0.014815 Domestica                  ;
 n_1991                          1160       0.0074075 Tandeo_01                  ;
 n_1995                          1160               0 Domestica                  ;
 n_1996                          1160               0 Domestica                  ;
 n_1997                   1159.999878               0 Domestica                  ;
 n_20                     1178.393799        0.014815 Domestica                  ;
 n_2003                          1160               0 Domestica                  ;
 n_2004                          1160               0 Domestica                  ;
 n_2006                          1180               0 Domestica                  ;
 n_2008                   1178.738647               0 Domestica                  ;
 n_2009                          1180               0 Domestica                  ;
 n_2013                          1220               0 Domestica                  ;
 n_2014                          1220               0 Domestica                  ;
 n_2019                   1244.557983               0 Domestica                  ;
 n_2021                   1234.944214               0 Domestica                  ;
 n_2023                   1234.385742               0 Domestica                  ;
 n_2024                   1190.135864               0 Domestica                  ;
 n_2025                   1189.166992               0 Domestica                  ;
 n_2026                   1179.174438               0 Domestica                  ;
 n_2027                          1180               0 Domestica                  ;
 n_2028                   1160.494141               0 Domestica                  ;
 n_2029                   1230.501587               0 Domestica                  ;
 n_203                    1159.463379               0 Domestica                  ;
 n_2030                          1160       0.0074075 Tandeo_01                  ;
 n_2033                          1180        0.014815 Domestica                  ;
 n_2034                          1180        0.014815 Domestica                  ;
 n_2035                   1208.168823               0 Domestica                  ;
 n_2036                          1160               0 Domestica                  ;
 n_2037                   1160.680786               0 Domestica                  ;
 n_2038                          1160               0 Domestica                  ;
 n_2039                          1180               0 Domestica                  ;
 n_204                           1160       0.0074075 Tandeo_01                  ;
 n_2040                          1160        0.014815 Domestica                  ;
 n_2041                   1161.781982        0.014815 Domestica                  ;
 n_2044                          1160       0.0074075 Tandeo_01                  ;
 n_2045                   1161.348145       0.0074075 Tandeo_01                  ;
 n_2046                   1160.346436       0.0074075 Tandeo_01                  ;
 n_2047                   1157.013306               0 Domestica                  ;
 n_2048                          1160               0 Domestica                  ;
 n_2049                          1160               0 Domestica                  ;
 n_205                           1160       0.0074075 Tandeo_01                  ;
 n_2051                          1180               0 Domestica                  ;
 n_2054                   1179.999878               0 Domestica                  ;
 n_2056                          1180               0 Domestica                  ;
 n_2057                          1180               0 Domestica                  ;
 n_2058                          1200               0 Domestica                  ;
 n_2059                    1178.92688        0.014815 Domestica                  ;
 n_206                           1160               0 Domestica                  ;
 n_2060                   1184.750122        0.014815 Domestica                  ;
 n_2061                   1221.786621               0 Domestica                  ;
 n_2063                          1160               0 Domestica                  ;
 n_2067                          1180               0 Domestica                  ;
 n_2068                   1160.227905       0.0074075 Tandeo_01                  ;
 n_2069                   1160.748291       0.0074075 Tandeo_01                  ;
 n_207                    1160.000122        0.014815 Domestica                  ;
 n_2070                    1160.92749               0 Domestica                  ;
 n_2071                    1160.33252       0.0074075 Tandeo_01                  ;
 n_2073                   1160.574219       0.0074075 Tandeo_01                  ;
 n_2076                          1160               0 Domestica                  ;
 n_2077                          1160               0 Domestica                  ;
 n_2079                   1161.033691               0 Domestica                  ;
 n_2080                   1212.351929        0.014815 Domestica                  ;
 n_2081                   1211.003296               0 Domestica                  ;
 n_2089                   1190.349976               0 Domestica                  ;
 n_2092                          1180               0 Domestica                  ;
 n_21                      1161.16748       0.0074075 Tandeo_01                  ;
 n_210                           1160               0 Domestica                  ;
 n_2100                   1151.001343       0.0074075 Tandeo_01                  ;
 n_2101                          1160       0.0074075 Tandeo_01                  ;
 n_2102                          1160               0 Domestica                  ;
 n_2103                   1159.999878        0.014815 Domestica                  ;
 n_2104                   1161.110718        0.014815 Domestica                  ;
 n_2105                   1173.684692               0 Domestica                  ;
 n_2106                          1160       0.0074075 Tandeo_01                  ;
 n_2107                          1180               0 Domestica                  ;
 n_211                           1160        0.014815 Domestica                  ;
 n_2110                   1161.349243               0 Domestica                  ;
 n_2111                          1160               0 Domestica                  ;
 n_2112                   1160.296387       0.0074075 Tandeo_01                  ;
 n_2113                   1160.693848       0.0074075 Tandeo_01                  ;
 n_2114                   1156.992554               0 Domestica                  ;
 n_2115                   1161.795532               0 Domestica                  ;
 n_2117                          1160               0 Domestica                  ;
 n_2118                    1233.92688               0 Domestica                  ;
 n_212                    1234.172241               0 Domestica                  ;
 n_2120                   1178.845093               0 Domestica                  ;
 n_2121                   1229.650513               0 Domestica                  ;
 n_2122                   1232.131592               0 Domestica                  ;
 n_2123                          1160               0 Domestica                  ;
 n_2124                    1162.96228               0 Domestica                  ;
 n_2125                   1160.386108               0 Domestica                  ;
 n_271                           1180        0.014815 Domestica                  ;
 n_272                           1180        0.014815 Domestica                  ;
 n_273                           1180        0.014815 Domestica                  ;
 n_274                           1180        0.014815 Domestica                  ;
 n_277                           1180        0.014815 Domestica                  ;
 n_279                           1180        0.014815 Domestica                  ;
 n_28                            1180        0.014815 Domestica                  ;
 n_280                           1180        0.014815 Domestica                  ;
 n_29                            1160               0 Domestica                  ;
 n_295                    1150.786133     0.002777778 Tabacal_bajo               ;
 n_3001                             0               0 Domestica                  ;
 n_3002                          1220        0.014815 Domestica                  ;
 n_3004                       1228.09               0 Domestica                  ;
 n_3005                       1206.11               0 Domestica                  ;
 n_347                           1180        0.014815 Domestica                  ;
 n_351                    1164.438232        0.014815 Domestica                  ;
 n_354                    1164.792603        0.014815 Domestica                  ;
 n_380                           1180               0 Domestica                  ;
 n_389                           1160       0.0074075 Tandeo_01                  ;
 n_390                           1160       0.0074075 Tandeo_01                  ;
 n_392                           1160       0.0074075 Tandeo_01                  ;
 n_395                    1149.437866     0.005555556 Tabacal_bajo               ;
 n_4                             1160       0.0074075 Tandeo_01                  ;
 n_407                           1180        0.014815 Domestica                  ;
 n_422                           1200        0.014815 Domestica                  ;
 n_450                    1159.810303        0.014815 Domestica                  ;
 n_451                           1160               0 Domestica                  ;
 n_452                           1160               0 Domestica                  ;
 n_488                    1168.040283               0 Domestica                  ;
 n_489                    1170.205688               0 Domestica                  ;
 n_499                    1166.128418        0.014815 Domestica                  ;
 n_532                    1160.565918        0.014815 Domestica                  ;
 n_533                    1160.605103               0 Domestica                  ;
 n_538                    1160.738647        0.014815 Domestica                  ;
 n_556                    1160.371338        0.014815 Domestica                  ;
 n_595                    1195.318237     0.002777778 Tabacal                    ;
 n_602                    1160.793091        0.014815 Domestica                  ;
 n_612                    1160.889038        0.014815 Domestica                  ;
 n_613                    1161.451416        0.014815 Domestica                  ;
 n_616                    1160.973755        0.014815 Domestica                  ;
 n_618                    1160.428711        0.014815 Domestica                  ;
 n_62                     1160.772339        0.014815 Domestica                  ;
 n_621                    1160.383423        0.014815 Domestica                  ;
 n_624                    1160.211914        0.014815 Domestica                  ;
 n_630                           1160        0.014815 Domestica                  ;
 n_64                            1160        0.014815 Domestica                  ;
 n_654                    1160.942749        0.014815 Domestica                  ;
 n_663                           1160        0.014815 Domestica                  ;
 n_670                           1160        0.014815 Domestica                  ;
 n_683                    1170.494019        0.014815 Domestica                  ;
 n_692                    1165.722656        0.014815 Domestica                  ;
 n_694                     1179.41394        0.014815 Domestica                  ;
 n_697                           1160       0.0074075 Tandeo_01                  ;
 n_698                           1160       0.0074075 Tandeo_01                  ;
 n_699                           1160       0.0074075 Tandeo_01                  ;
 n_701                           1160        0.014815 Domestica                  ;
 n_702                           1160        0.014815 Domestica                  ;
 n_724                           1160               0 Domestica                  ;
 n_726                           1160       0.0074075 Tandeo_01                  ;
 n_736                    1145.798828       0.0074075 Tandeo_01                  ;
 n_742                           1160       0.0074075 Tandeo_01                  ;
 n_764                           1160       0.0074075 Tandeo_01                  ;
 n_766                           1160        0.014815 Domestica                  ;
 n_767                           1160       0.0074075 Tandeo_01                  ;
 n_768                           1160       0.0074075 Tandeo_01                  ;
 n_771                           1160        0.014815 Domestica                  ;
 n_781                           1160        0.014815 Domestica                  ;
 n_782                           1160               0 Domestica                  ;
 n_795                    1191.997925               0 Domestica                  ;
 n_813                           1160       0.0074075 Tandeo_01                  ;
 n_82                            1160       0.0074075 Tandeo_01                  ;
 n_820                           1160       0.0074075 Tandeo_01                  ;
 n_823                           1160       0.0074075 Tandeo_01                  ;
 n_829                    1160.388672       0.0074075 Tandeo_01                  ;
 n_877                    1161.381348        0.014815 Domestica                  ;
 n_886                           1160       0.0074075 Tandeo_01                  ;
 n_887                           1160               0 Domestica                  ;
 n_893                           1160       0.0074075 Tandeo_01                  ;
 n_907                           1160       0.0074075 Tandeo_01                  ;
 n_908                     1160.02002        0.014815 Domestica                  ;
 n_929                    1161.367554       0.0074075 Tandeo_01                  ;
 n_954                    1162.353149        0.014815 Domestica                  ;
 n_972                    1161.807251        0.014815 Domestica                  ;
 n_985                    1160.789307               0 Domestica                  ;
 n_996                    1191.326172               0 Domestica                  ;
 n_997                    1193.721191               0 Domestica                  ;
 n_998                      1128.5802               0 Domestica                  ;

[RESERVOIRS]
;ID                                   Head                  Pattern
 1                               1250                            ;

[TANKS]