; Filename: nets/Xicotepec_UAM_9.inp
; WNTR: 0.3.0
; Created: 2021-02-02 11:58:12
[TITLE]

[JUNCTIONS]
;ID                      Elevation       Demand Pattern                 
 n_1                      1204.110474               0 Domestica                  ;
 n_10                     1210.704468               0 Domestica                  ;
 n_100                     1216.62793               0 Domestica                  ;
 n_1000                   1220.524902               0 Domestica                  ;
 n_1001                    1225.05896               0 Domestica                  ;
 n_1002                   1228.129395               0 Domestica                  ;
 n_1003                   1228.669189               0 Domestica                  ;
 n_1004                    1228.85083               0 Domestica                  ;
 n_1005                   1160.809326        0.014815 Domestica                  ;
 n_1006                   1229.360596               0 Domestica                  ;
 n_1007                   1231.574585               0 Domestica                  ;
 n_1008                   1234.728394               0 Domestica                  ;
 n_1009                          1235               0 Domestica                  ;
 n_101                           1235               0 Domestica                  ;
 n_1010                          1235               0 Domestica                  ;
 n_1011                   1228.516479               0 Domestica                  ;
 n_1012                   1155.585815               0 Tabacal_bajo               ;
 n_1013                   1155.958008               0 Tabacal_bajo               ;
 n_1014                   1156.176147     0.005555556 Tabacal_bajo               ;
 n_1015                   1160.234009        0.014815 Domestica                  ;
 n_1016                   1155.851685     0.002777778 Tabacal_bajo               ;
 n_1017                   1155.335693     0.005555556 Tabacal_bajo               ;
 n_1018                   1185.912598     0.002777778 Tabacal                    ;
 n_1019                   1204.564453     0.002777778 Tabacal                    ;
 n_102                    1212.643677               0 Domestica                  ;
 n_1020                   1180.467041               0 Domestica                  ;
 n_1021                   1179.831787               0 Domestica                  ;
 n_1022                   1179.674072               0 Domestica                  ;
 n_1023                   1179.177856               0 Domestica                  ;
 n_1024                   1176.557129               0 Domestica                  ;
 n_1025                   1160.248657        0.014815 Domestica                  ;
 n_1026                   1172.913452               0 Domestica                  ;
 n_1027                   1165.435791               0 Domestica                  ;
 n_1028                   1167.532715               0 Domestica                  ;
 n_1029                   1164.287476               0 Domestica                  ;
 n_103                    1161.520752     0.005555556 Tabacal                    ;
 n_1030                   1162.435913     0.005555556 Tabacal                    ;
 n_1031                   1162.453857     0.002777778 Tabacal                    ;
 n_1032                          1160     0.002777778 Tabacal                    ;
 n_1033                   1161.730469     0.002777778 Tabacal                    ;
 n_1034                   1162.607666     0.002777778 Tabacal                    ;
 n_1035                   1160.325562        0.014815 Domestica                  ;
 n_1036                          1160     0.005555556 Tabacal                    ;
 n_1037                          1160     0.002777778 Tabacal                    ;
 n_1038                   1163.051514     0.002777778 Tabacal_bajo               ;
 n_1039                   1161.518799     0.002777778 Tabacal_bajo               ;
 n_104                     1158.87561     0.002777778 Tabacal_bajo               ;
 n_1040                    1159.72522     0.002777778 Tabacal_bajo               ;
 n_1041                   1160.092529     0.002777778 Tabacal_bajo               ;
 n_1043                   1161.102783               0 Tabacal_bajo               ;
 n_1044                   1164.706177     0.002777778 Tabacal_bajo               ;
 n_1045                   1160.342163        0.014815 Domestica                  ;
 n_1046                   1170.591064     0.005555556 Tabacal_bajo               ;
 n_1047                   1174.829834     0.005555556 Tabacal_bajo               ;
 n_1048                   1175.822266               0 Tabacal_bajo               ;
 n_1049                   1175.430786     0.002777778 Tabacal_bajo               ;
 n_105                    1170.878296     0.005555556 Tabacal_bajo               ;
 n_1050                   1168.908447     0.002777778 Tabacal_bajo               ;
 n_1051                   1167.095215     0.005555556 Tabacal_bajo               ;
 n_1052                   1164.128906     0.002777778 Tabacal_bajo               ;
 n_1053                   1160.007935     0.002777778 Tabacal_bajo               ;
 n_1054                   1151.513062     0.002777778 Tabacal_bajo               ;
 n_1055                    1160.30835        0.014815 Domestica                  ;
 n_1056                   1225.297485               0 Domestica                  ;
 n_1057                   1226.185181               0 Domestica                  ;
 n_1058                   1226.723755               0 Domestica                  ;
 n_1059                   1227.046631               0 Domestica                  ;
 n_106                    1227.229858     0.005555556 Tabacal                    ;
 n_1060                   1227.270508               0 Domestica                  ;
 n_1061                   1221.223755               0 Domestica                  ;
 n_1062                   1220.602417               0 Domestica                  ;
 n_1063                   1160.400024     0.002777778 Tabacal                    ;
 n_1064                          1160     0.002777778 Tabacal                    ;
 n_1065                   1160.323608               0 Domestica                  ;
 n_1066                          1160     0.002777778 Tabacal                    ;
 n_1067                          1160               0 Domestica                  ;
 n_1068                   1102.335815               0 Tabacal_bajo               ;
 n_1069                   1100.490356     0.002777778 Tabacal_bajo               ;
 n_107                    1106.319336     0.005555556 Tabacal_bajo               ;
 n_1070                   1114.854736     0.002777778 Tabacal_bajo               ;
 n_1071                   1120.129395     0.005555556 Tabacal_bajo               ;
 n_1072                   1120.457397     0.002777778 Tabacal_bajo               ;
 n_1073                    1125.46582     0.002777778 Tabacal_bajo               ;
 n_1074                   1130.224854     0.002777778 Tabacal_bajo               ;
 n_1075                   1160.276367               0 Domestica                  ;
 n_1076                   1134.643433     0.005555556 Tabacal_bajo               ;
 n_1077                   1141.219116     0.005555556 Tabacal_bajo               ;
 n_1078                   1143.700073     0.005555556 Tabacal_bajo               ;
 n_1079                   1146.592651               0 Tabacal_bajo               ;
 n_108                    1146.714355               0 Domestica                  ;
 n_1080                    1142.79541               0 Domestica                  ;
 n_1081                   1142.248413     0.005555556 Tabacal_bajo               ;
 n_1082                   1142.772339     0.002777778 Tabacal_bajo               ;
 n_1083                   1143.669922     0.005555556 Tabacal_bajo               ;
 n_1084                   1144.090454     0.002777778 Tabacal_bajo               ;
 n_1085                   1160.167114        0.014815 Domestica                  ;
 n_1086                   1139.930298     0.005555556 Tabacal_bajo               ;
 n_1087                   1132.358032     0.005555556 Tabacal_bajo               ;
 n_1088                   1126.574097     0.005555556 Tabacal_bajo               ;
 n_1089                   1122.452393     0.002777778 Tabacal_bajo               ;
 n_109                     1125.11792     0.002777778 Tabacal_bajo               ;
 n_1090                   1127.844604     0.005555556 Tabacal_bajo               ;
 n_1091                   1123.979614     0.002777778 Tabacal_bajo               ;
 n_1092                   1122.460938     0.002777778 Tabacal_bajo               ;
 n_1093                   1117.957397     0.005555556 Tabacal_bajo               ;
 n_1094                   1117.445435     0.002777778 Tabacal_bajo               ;
 n_1095                   1217.380859               0 Domestica                  ;
 n_1096                          1160        0.014815 Domestica                  ;
 n_1097                    1135.61084     0.002777778 Tabacal_bajo               ;
 n_1098                   1141.825806     0.002777778 Tabacal_bajo               ;
 n_1099                   1149.346802     0.002777778 Tabacal_bajo               ;
 n_11                     1151.606689     0.002777778 Tabacal_bajo               ;
 n_110                           1155     0.002777778 Tabacal_bajo               ;
 n_1100                   1154.964722     0.005555556 Tabacal_bajo               ;
 n_1101                   1152.377808     0.002777778 Tabacal_bajo               ;
 n_1102                   1151.890991               0 Tabacal_bajo               ;
 n_1103                   1147.230957     0.005555556 Tabacal_bajo               ;
 n_1104                     1153.3125               0 Tabacal_bajo               ;
 n_1105                          1160        0.014815 Domestica                  ;
 n_1106                   1139.335693        0.014815 Domestica                  ;
 n_1107                   1144.940186        0.014815 Domestica                  ;
 n_1108                   1153.734741       0.0074075 Tandeo_01                  ;
 n_1109                   1155.640259               0 Domestica                  ;
 n_111                    1156.768311               0 Domestica                  ;
 n_1110                   1158.516113       0.0074075 Tandeo_01                  ;
 n_1111                          1160       0.0074075 Tandeo_01                  ;
 n_1112                   1159.509033       0.0074075 Tandeo_01                  ;
 n_1113                   1155.113525       0.0074075 Tandeo_01                  ;
 n_1114                   1152.960571       0.0074075 Tandeo_01                  ;
 n_1115                          1160               0 Domestica                  ;
 n_1116                    1145.34021       0.0074075 Tandeo_01                  ;
 n_1117                   1140.612549       0.0074075 Tandeo_01                  ;
 n_1118                   1133.198242        0.014815 Domestica                  ;
 n_1119                   1127.391113        0.014815 Domestica                  ;
 n_112                    1125.776855        0.014815 Domestica                  ;
 n_1120                    1131.49231        0.014815 Domestica                  ;
 n_1121                   1138.386963        0.014815 Domestica                  ;
 n_1122                          1160       0.0074075 Tandeo_01                  ;
 n_1123                   1156.837769       0.0074075 Tandeo_01                  ;
 n_1124                   1152.632202               0 Domestica                  ;
 n_1125                   1159.999878               0 Domestica                  ;
 n_1126                          1160        0.014815 Domestica                  ;
 n_1127                          1160        0.014815 Domestica                  ;
 n_1128                          1160        0.014815 Domestica                  ;
 n_1129                   1158.814575               0 Domestica                  ;
 n_113                    1153.999268        0.014815 Domestica                  ;
 n_1130                   1146.536499        0.014815 Domestica                  ;
 n_1131                   1144.851929               0 Domestica                  ;
 n_1132                   1142.677368        0.014815 Domestica                  ;
 n_1133                   1140.572632               0 Domestica                  ;
 n_1134                    1139.31543               0 Domestica                  ;
 n_1135                          1160        0.014815 Domestica                  ;
 n_1136                   1138.815674               0 Domestica                  ;
 n_1137                   1136.917847               0 Domestica                  ;
 n_1138                   1135.436279               0 Domestica                  ;
 n_1139                   1132.857544       0.0074075 Tandeo_01                  ;
 n_114                    1124.340454       0.0074075 Tandeo_01                  ;
 n_1140                   1107.055542       0.0074075 Tandeo_01                  ;
 n_1141                   1103.763794       0.0074075 Tandeo_01                  ;
 n_1142                   1119.224609       0.0074075 Tandeo_01                  ;
 n_1143                   1126.722656       0.0074075 Tandeo_01                  ;
 n_1144                   1115.834595        0.014815 Domestica                  ;
 n_1145                          1160        0.014815 Domestica                  ;
 n_1146                   1116.129272        0.014815 Domestica                  ;
 n_1147                    1114.19519        0.014815 Domestica                  ;
 n_1148                   1112.300903       0.0074075 Tandeo_01                  ;
 n_1149                   1108.970825       0.0074075 Tandeo_01                  ;
 n_115                    1126.384155        0.014815 Domestica                  ;
 n_1150                   1104.231445       0.0074075 Tandeo_01                  ;
 n_1151                   1104.891113       0.0074075 Tandeo_01                  ;
 n_1152                     1107.5271       0.0074075 Tandeo_01                  ;
 n_1153                   1109.885132               0 Domestica                  ;
 n_1154                   1123.849854     0.002777778 Tabacal_bajo               ;
 n_1155                    1161.64624               0 Domestica                  ;
 n_1156                   1111.535156     0.002777778 Tabacal_bajo               ;
 n_1157                   1115.442505     0.002777778 Tabacal_bajo               ;
 n_1158                   1130.581787     0.002777778 Tabacal_bajo               ;
 n_1159                   1098.187744     0.002777778 Tabacal_bajo               ;
 n_116                    1099.514648     0.002777778 Tabacal_bajo               ;
 n_1160                   1117.841675     0.002777778 Tabacal_bajo               ;
 n_1161                   1125.077637     0.002777778 Tabacal_bajo               ;
 n_1162                   1135.105957               0 Tabacal_bajo               ;
 n_1163                   1133.511353     0.005555556 Tabacal_bajo               ;
 n_1164                   1129.458008               0 Tabacal_bajo               ;
 n_1165                   1161.543579               0 Domestica                  ;
 n_1166                   1133.347168               0 Tabacal_bajo               ;
 n_1167                   1136.000732     0.005555556 Tabacal_bajo               ;
 n_1168                          1160        0.014815 Domestica                  ;
 n_1169                          1160       0.0074075 Tandeo_01                  ;
 n_117                           1160               0 Domestica                  ;
 n_1170                          1160       0.0074075 Tandeo_01                  ;
 n_1171                          1160       0.0074075 Tandeo_01                  ;
 n_1172                          1160        0.014815 Domestica                  ;
 n_1173                   1156.926025       0.0074075 Tandeo_01                  ;
 n_1174                   1156.216187       0.0074075 Tandeo_01                  ;
 n_1175                          1160        0.014815 Domestica                  ;
 n_1176                   1153.362549       0.0074075 Tandeo_01                  ;
 n_1177                          1140       0.0074075 Tandeo_01                  ;
 n_1178                   1147.937012               0 Domestica                  ;
 n_1179                          1140               0 Domestica                  ;
 n_118                    1144.624756       0.0074075 Tandeo_01                  ;
 n_1180                          1160       0.0074075 Tandeo_01                  ;
 n_1181                          1160       0.0074075 Tandeo_01                  ;
 n_1182                   1157.863037       0.0074075 Tandeo_01                  ;
 n_1183                   1150.331055       0.0074075 Tandeo_01                  ;
 n_1184                   1145.314575       0.0074075 Tandeo_01                  ;
 n_1185                          1160        0.014815 Domestica                  ;
 n_1186                    1152.99353       0.0074075 Tandeo_01                  ;
 n_1187                   1158.050537       0.0074075 Tandeo_01                  ;
 n_1188                   1157.483765       0.0074075 Tandeo_01                  ;
 n_1189                          1160       0.0074075 Tandeo_01                  ;
 n_119                           1160       0.0074075 Tandeo_01                  ;
 n_1190                          1160       0.0074075 Tandeo_01                  ;
 n_1191                          1160       0.0074075 Tandeo_01                  ;
 n_1192                   1159.147339       0.0074075 Tandeo_01                  ;
 n_1194                   1147.716309       0.0074075 Tandeo_01                  ;
 n_1195                   1223.816162               0 Domestica                  ;
 n_1196                          1160        0.014815 Domestica                  ;
 n_1197                    1140.24707       0.0074075 Tandeo_01                  ;
 n_1198                   1137.278809       0.0074075 Tandeo_01                  ;
 n_1199                   1130.186768       0.0074075 Tandeo_01                  ;
 n_12                            1120        0.014815 Domestica                  ;
 n_120                           1120               0 Domestica                  ;
 n_1200                          1120        0.014815 Domestica                  ;
 n_1201                          1120        0.014815 Domestica                  ;
 n_1202                   1123.332153       0.0074075 Tandeo_01                  ;
 n_1203                   1130.945557               0 Domestica                  ;
 n_1204                   1132.901245       0.0074075 Tandeo_01                  ;
 n_1205                          1160               0 Domestica                  ;
 n_1206                   1132.595703       0.0074075 Tandeo_01                  ;
 n_1207                   1134.380249       0.0074075 Tandeo_01                  ;
 n_1208                    1136.01709       0.0074075 Tandeo_01                  ;
 n_1209                   1137.532227        0.014815 Domestica                  ;
 n_121                    1138.018311               0 Domestica                  ;
 n_1210                   1131.518799               0 Domestica                  ;
 n_1211                   1133.416382        0.014815 Domestica                  ;
 n_1212                   1139.398315       0.0074075 Tandeo_01                  ;
 n_1213                   1141.180298       0.0074075 Tandeo_01                  ;
 n_1214                   1142.301147               0 Domestica                  ;
 n_1215                          1180               0 Domestica                  ;
 n_1216                   1144.837402        0.014815 Domestica                  ;
 n_1217                   1146.380737        0.014815 Domestica                  ;
 n_1218                   1152.402832       0.0074075 Tandeo_01                  ;
 n_1219                   1150.645386       0.0074075 Tandeo_01                  ;
 n_122                     1149.09729       0.0074075 Tandeo_01                  ;
 n_1220                   1145.137573       0.0074075 Tandeo_01                  ;
 n_1221                   1148.021362               0 Domestica                  ;
 n_1222                   1151.613281       0.0074075 Tandeo_01                  ;
 n_1223                   1157.775635               0 Domestica                  ;
 n_1224                          1160       0.0074075 Tandeo_01                  ;
 n_1225                          1180               0 Domestica                  ;
 n_1226                   1160.383667       0.0074075 Tandeo_01                  ;
 n_1227                     1160.8396        0.014815 Domestica                  ;
 n_1228                   1160.828369       0.0074075 Tandeo_01                  ;
 n_1229                   1161.127197       0.0074075 Tandeo_01                  ;
 n_123                    1161.333984        0.014815 Domestica                  ;
 n_1230                   1161.571899        0.014815 Domestica                  ;
 n_1231                   1164.387695        0.014815 Domestica                  ;
 n_1232                   1161.507324       0.0074075 Tandeo_01                  ;
 n_1233                   1161.826538       0.0074075 Tandeo_01                  ;
 n_1234                   1161.828735       0.0074075 Tandeo_01                  ;
 n_1235                   1176.167847        0.014815 Domestica                  ;
 n_1236                   1161.816406       0.0074075 Tandeo_01                  ;
 n_1237                   1161.803223               0 Domestica                  ;
 n_1238                   1162.362793       0.0074075 Tandeo_01                  ;
 n_1239                   1161.843994       0.0074075 Tandeo_01                  ;
 n_124                    1161.986816       0.0074075 Tandeo_01                  ;
 n_1240                   1162.404663       0.0074075 Tandeo_01                  ;
 n_1241                   1162.451294       0.0074075 Tandeo_01                  ;
 n_1242                   1162.548706        0.014815 Domestica                  ;
 n_1243                   1162.438354       0.0074075 Tandeo_01                  ;
 n_1244                   1162.602905     0.002777778 Tabacal_bajo               ;
 n_1245                   1175.856079        0.014815 Domestica                  ;
 n_1246                   1162.494995       0.0074075 Tandeo_01                  ;
 n_1247                   1162.369263               0 Domestica                  ;
 n_1248                   1167.632568        0.014815 Domestica                  ;
 n_1249                   1164.842407        0.014815 Domestica                  ;
 n_125                    1164.449463        0.014815 Domestica                  ;
 n_1250                   1163.249878        0.014815 Domestica                  ;
 n_1251                    1162.98877        0.014815 Domestica                  ;
 n_1252                   1162.928223        0.014815 Domestica                  ;
 n_1253                          1180        0.014815 Domestica                  ;
 n_1254                          1160               0 Domestica                  ;
 n_1255                   1164.822144        0.014815 Domestica                  ;
 n_1256                          1160               0 Domestica                  ;
 n_1257                          1160               0 Domestica                  ;
 n_1258                          1160               0 Domestica                  ;
 n_1259                          1160               0 Domestica                  ;
 n_126                           1160               0 Domestica                  ;
 n_1260                          1160        0.014815 Domestica                  ;
 n_1261                          1160       0.0074075 Tandeo_01                  ;
 n_1262                          1160       0.0074075 Tandeo_01                  ;
 n_1263                          1160       0.0074075 Tandeo_01                  ;
 n_1264                          1160       0.0074075 Tandeo_01                  ;
 n_1265                    1164.84729        0.014815 Domestica                  ;
 n_1266                          1160        0.014815 Domestica                  ;
 n_1267                   1187.869995        0.014815 Domestica                  ;
 n_1268                   1180.963867        0.014815 Domestica                  ;
 n_1269                          1180        0.014815 Domestica                  ;
 n_127                           1180               0 Domestica                  ;
 n_1270                          1180               0 Domestica                  ;
 n_1271                          1180               0 Domestica                  ;
 n_1272                          1180        0.014815 Domestica                  ;
 n_1273                          1180        0.014815 Domestica                  ;
 n_1274                   1180.645142        0.014815 Domestica                  ;
 n_1275                   1177.640503        0.014815 Domestica                  ;
 n_1276                   1190.287231        0.014815 Domestica                  ;
 n_1277                   1195.183105               0 Domestica                  ;
 n_1278                   1197.266846        0.014815 Domestica                  ;
 n_1279                    1198.40918        0.014815 Domestica                  ;
 n_128                    1160.304443               0 Domestica                  ;
 n_1280                          1160       0.0074075 Tandeo_01                  ;
 n_1281                          1160        0.014815 Domestica                  ;
 n_1282                          1160               0 Domestica                  ;
 n_1283                          1160               0 Domestica                  ;
 n_1284                          1160               0 Domestica                  ;
 n_1285                   1177.567505        0.014815 Domestica                  ;
 n_1286                          1160               0 Domestica                  ;
 n_1287                          1160               0 Domestica                  ;
 n_1288                          1160               0 Domestica                  ;
 n_1289                          1180               0 Domestica                  ;
 n_129                           1180               0 Domestica                  ;
 n_1290                          1180               0 Domestica                  ;
 n_1291                          1180        0.014815 Domestica                  ;
 n_1292                    1179.25647        0.014815 Domestica                  ;
 n_1293                          1160       0.0074075 Tandeo_01                  ;
 n_1294                          1160       0.0074075 Tandeo_01                  ;
 n_1295                   1221.747925               0 Domestica                  ;
 n_1296                    1159.87146               0 Domestica                  ;
 n_1297                   1160.000122       0.0074075 Tandeo_01                  ;
 n_1298                          1160       0.0074075 Tandeo_01                  ;
 n_1299                          1160       0.0074075 Tandeo_01                  ;
 n_13                            1160       0.0074075 Tandeo_01                  ;
 n_130                           1160       0.0074075 Tandeo_01                  ;
 n_1300                          1170        0.014815 Domestica                  ;
 n_1301                          1170        0.014815 Domestica                  ;
 n_1302                          1170        0.014815 Domestica                  ;
 n_1303                   1171.776245        0.014815 Domestica                  ;
 n_1304                   1172.156128        0.014815 Domestica                  ;
 n_1305                   1160.606567        0.014815 Domestica                  ;
 n_1306                   1173.145142        0.014815 Domestica                  ;
 n_1307                          1180        0.014815 Domestica                  ;
 n_1308                   1180.000122        0.014815 Domestica                  ;
 n_1309                          1180        0.014815 Domestica                  ;
 n_131                           1180        0.014815 Domestica                  ;
 n_1310                          1180        0.014815 Domestica                  ;
 n_1311                          1180        0.014815 Domestica                  ;
 n_1312                          1180        0.014815 Domestica                  ;
 n_1313                          1180        0.014815 Domestica                  ;
 n_1314                          1180        0.014815 Domestica                  ;
 n_1315                          1160       0.0074075 Tandeo_01                  ;
 n_1316                          1180        0.014815 Domestica                  ;
 n_1317                   1178.231567        0.014815 Domestica                  ;
 n_1318                   1178.854614        0.014815 Domestica                  ;
 n_1319                          1180               0 Domestica                  ;
 n_132                           1180               0 Domestica                  ;
 n_1320                          1180        0.014815 Domestica                  ;
 n_1321                          1180        0.014815 Domestica                  ;
 n_1322                          1180        0.014815 Domestica                  ;